{
    "abstract": "Stockalike Boat Propellers, Turbine Generators, and Ballast Tanks",
    "author": [
        "Spartwo",
        "MiffedStarfish"
    ],
    "depends": [
        {
            "name": "ModuleManager"
        },
        {
            "name": "KerbalPowersCore"
        },
        {
            "name": "FirespitterCore"
        }
    ],
    "download": "https://spacedock.info/mod/3977/Kerbal%20Powers%20Naval/download/v1.0.2",
    "download_content_type": "application/zip",
    "download_hash": {
        "sha1": "8B0D39712AD6620BA627AFBCDD7A7C480D09A382",
        "sha256": "AFC52EE40C2E63B5A6D6626493FF8CA7EF0AB2AF7BD6FC74EA7257B2AB4EF946"
    },
    "download_size": 23894660,
    "identifier": "KerbalPowersNaval",
    "install": [
        {
            "find": "KerbalPowers/Naval",
            "install_to": "GameData/KerbalPowers"
        },
        {
            "find": "TURD",
            "install_to": "GameData"
        }
    ],
    "install_size": 73722854,
    "ksp_version": "1.12.5",
    "license": "restricted",
    "localizations": [
        "en-us"
    ],
    "name": "Kerbal Powers Naval",
    "release_date": "2026-01-25T21:19:15.363609+00:00",
    "resources": {
        "discussions": "https://github.com/KerbalPowers/KP-Dynamics/discussions",
        "homepage": "https://forum.kerbalspaceprogram.com/topic/228684-kerbal-powers-naval-v10/",
        "manual": "https://github.com/KerbalPowers/KP-Dynamics/wiki",
        "repository": "https://github.com/KerbalPowers/KP-Dynamics",
        "spacedock": "https://spacedock.info/mod/3977/Kerbal%20Powers%20Naval",
        "x_screenshot": "https://spacedock.info/content/Spartwo_95463/Kerbal_Powers_Naval/Kerbal_Powers_Naval-1756485279.png"
    },
    "spec_version": "v1.4",
    "suggests": [
        {
            "name": "RationalHydroDynamics"
        },
        {
            "name": "VABorganizer"
        }
    ],
    "tags": [
        "parts",
        "plugin"
    ],
    "version": "v1.0.2",
    "x_generated_by": "netkan"
}